trans-Azobenzol · optimierte Minimumstruktur
     RDKit          3D

 24 25  0  0  0  0  0  0  0  0999 V2000
   -2.2154    1.0710    0.2443 C   0  0  0  0  0  0  0  0  0  0  0  0
   -3.5726    1.3257    0.3260 C   0  0  0  0  0  0  0  0  0  0  0  0
   -4.4928    0.2949    0.1577 C   0  0  0  0  0  0  0  0  0  0  0  0
   -4.0526   -0.9994   -0.0938 C   0  0  0  0  0  0  0  0  0  0  0  0
   -2.6957   -1.2657   -0.1772 C   0  0  0  0  0  0  0  0  0  0  0  0
   -1.7690   -0.2318   -0.0104 C   0  0  0  0  0  0  0  0  0  0  0  0
   -0.4157   -0.5807   -0.1120 N   0  0  0  0  0  0  0  0  0  0  0  0
    0.3845    0.3974    0.0331 N   0  0  0  0  0  0  0  0  0  0  0  0
    1.7378    0.0486   -0.0686 C   0  0  0  0  0  0  0  0  0  0  0  0
    2.6645    1.0827    0.0971 C   0  0  0  0  0  0  0  0  0  0  0  0
    4.0214    0.8163    0.0138 C   0  0  0  0  0  0  0  0  0  0  0  0
    4.4616   -0.4781   -0.2366 C   0  0  0  0  0  0  0  0  0  0  0  0
    3.5415   -1.5092   -0.4037 C   0  0  0  0  0  0  0  0  0  0  0  0
    2.1843   -1.2545   -0.3220 C   0  0  0  0  0  0  0  0  0  0  0  0
   -1.4926    1.8682    0.3739 H   0  0  0  0  0  0  0  0  0  0  0  0
   -3.9216    2.3325    0.5223 H   0  0  0  0  0  0  0  0  0  0  0  0
   -5.5538    0.5025    0.2228 H   0  0  0  0  0  0  0  0  0  0  0  0
   -4.7708   -1.7999   -0.2235 H   0  0  0  0  0  0  0  0  0  0  0  0
   -2.3375   -2.2693   -0.3726 H   0  0  0  0  0  0  0  0  0  0  0  0
    2.3063    2.0865    0.2917 H   0  0  0  0  0  0  0  0  0  0  0  0
    4.7396    1.6170    0.1426 H   0  0  0  0  0  0  0  0  0  0  0  0
    5.5226   -0.6858   -0.3016 H   0  0  0  0  0  0  0  0  0  0  0  0
    3.8905   -2.5162   -0.5991 H   0  0  0  0  0  0  0  0  0  0  0  0
    1.4616   -2.0518   -0.4507 H   0  0  0  0  0  0  0  0  0  0  0  0
  2  1  1  0
  3  2  2  0
  4  3  1  0
  5  4  2  0
  6  1  2  0
  6  5  1  0
  7  6  1  0
  8  7  2  0
  9  8  1  0
 10  9  2  0
 11 10  1  0
 12 11  2  0
 13 12  1  0
 14  9  1  0
 14 13  2  0
 15  1  1  0
 16  2  1  0
 17  3  1  0
 18  4  1  0
 19  5  1  0
 20 10  1  0
 21 11  1  0
 22 12  1  0
 23 13  1  0
 24 14  1  0
M  END
>  <calculation_method>
GFN1-xTB/ALPB(ethanol)

>  <optimization_fmax_ev_angstrom>
0.002

$$$$
