trans-Azobenzol
     RDKit          3D

 24 25  0  0  0  0  0  0  0  0999 V2000
   -2.2466    1.1533    0.1149 C   0  0  0  0  0  0  0  0  0  0  0  0
   -3.6119    1.3511    0.3370 C   0  0  0  0  0  0  0  0  0  0  0  0
   -4.4959    0.2786    0.2359 C   0  0  0  0  0  0  0  0  0  0  0  0
   -4.0169   -0.9887   -0.0905 C   0  0  0  0  0  0  0  0  0  0  0  0
   -2.6509   -1.1824   -0.3119 C   0  0  0  0  0  0  0  0  0  0  0  0
   -1.7474   -0.1189   -0.2022 C   0  0  0  0  0  0  0  0  0  0  0  0
   -0.3841   -0.3670   -0.4597 N   0  0  0  0  0  0  0  0  0  0  0  0
    0.3553    0.1950    0.3773 N   0  0  0  0  0  0  0  0  0  0  0  0
    1.7170   -0.0566    0.1166 C   0  0  0  0  0  0  0  0  0  0  0  0
    2.6188    1.0121    0.1772 C   0  0  0  0  0  0  0  0  0  0  0  0
    3.9840    0.8107   -0.0415 C   0  0  0  0  0  0  0  0  0  0  0  0
    4.4638   -0.4693   -0.3127 C   0  0  0  0  0  0  0  0  0  0  0  0
    3.5816   -1.5470   -0.3606 C   0  0  0  0  0  0  0  0  0  0  0  0
    2.2170   -1.3416   -0.1415 C   0  0  0  0  0  0  0  0  0  0  0  0
   -1.5663    1.9981    0.1856 H   0  0  0  0  0  0  0  0  0  0  0  0
   -3.9828    2.3420    0.5856 H   0  0  0  0  0  0  0  0  0  0  0  0
   -5.5583    0.4312    0.4081 H   0  0  0  0  0  0  0  0  0  0  0  0
   -4.7044   -1.8263   -0.1745 H   0  0  0  0  0  0  0  0  0  0  0  0
   -2.2831   -2.1722   -0.5697 H   0  0  0  0  0  0  0  0  0  0  0  0
    2.2502    2.0115    0.3934 H   0  0  0  0  0  0  0  0  0  0  0  0
    4.6705    1.6521    0.0024 H   0  0  0  0  0  0  0  0  0  0  0  0
    5.5259   -0.6278   -0.4824 H   0  0  0  0  0  0  0  0  0  0  0  0
    3.9534   -2.5477   -0.5647 H   0  0  0  0  0  0  0  0  0  0  0  0
    1.5373   -2.1893   -0.1687 H   0  0  0  0  0  0  0  0  0  0  0  0
  1  2  1  0
  2  3  2  0
  3  4  1  0
  4  5  2  0
  5  6  1  0
  6  7  1  0
  7  8  2  0
  8  9  1  0
  9 10  2  0
 10 11  1  0
 11 12  2  0
 12 13  1  0
 13 14  2  0
  6  1  2  0
 14  9  1  0
  1 15  1  0
  2 16  1  0
  3 17  1  0
  4 18  1  0
  5 19  1  0
 10 20  1  0
 11 21  1  0
 12 22  1  0
 13 23  1  0
 14 24  1  0
M  END
$$$$
